<additionals>
    <edge id="37107721#0"/>
    <edge id="-150892642#0"/>
    <edge id="-23824573#1"/>
    <edge id="445090772"/>
    <edge id="-150892642#1"/>
    <edge id="-150892651"/>
    <edge id="70766189#0"/>
    <edge id="37107887"/>
    <edge id="387485110"/>
    <edge id="124894799#0"/>
    <edge id="37107941#0"/>
    <edge id="124894807#2"/>
    <edge id="41818616#0"/>
    <edge id="29387492#0"/>
    <edge id="32238278#0"/>
    <edge id="387485114"/>
    <edge id="124952955#0"/>
    <edge id="32238278#2"/>
    <edge id="29387548#0"/>
    <edge id="125001690#0"/>
    <edge id="125001690#2"/>
    <edge id="390077436"/>
    <edge id="32238359#0"/>
    <edge id="gneE103"/>
    <edge id="387485117#0"/>
    <edge id="-89423134"/>
    <edge id="125001690#3"/>
    <edge id="25275000#1"/>
    <edge id="69459974"/>
    <edge id="-89424939#0"/>
    <edge id="390077438"/>
    <edge id="29402579"/>
    <edge id="-89424939#1"/>
    <edge id="-27286182"/>
    <edge id="gneE105"/>
    <edge id="387485121"/>
    <edge id="-30166623"/>
    <edge id="651534348#1"/>
    <edge id="8052435#0"/>
    <edge id="-89424941#0"/>
    <edge id="gneE105.305"/>
    <edge id="-30166638#1"/>
    <edge id="387485125#0"/>
    <edge id="651829103#0"/>
    <edge id="gneE109"/>
    <edge id="-89424941#1"/>
    <edge id="37190334#0"/>
    <edge id="387485128"/>
    <edge id="-30166706"/>
    <edge id="gneE110"/>
    <edge id="-89425146#0"/>
    <edge id="37190334#1"/>
    <edge id="-22795679#1"/>
    <edge id="-30166736"/>
    <edge id="-89425146#1"/>
    <edge id="gneE114"/>
    <edge id="387485135#0"/>
    <edge id="gneE114.376"/>
    <edge id="290179325"/>
    <edge id="37288974"/>
    <edge id="40925899"/>
    <edge id="gneE125"/>
    <edge id="40925822#0"/>
    <edge id="390077444"/>
    <edge id="71165702#0"/>
    <edge id="8159727"/>
    <edge id="387485135#2"/>
    <edge id="-570740987"/>
    <edge id="37288537"/>
    <edge id="8052435#1"/>
    <edge id="387485139#1"/>
    <edge id="65386967"/>
    <edge id="37288872#0"/>
    <edge id="gneE126"/>
    <edge id="-541328772#2"/>
    <edge id="150949606#1"/>
    <edge id="390506333#0"/>
    <edge id="269694584#2"/>
    <edge id="167628104"/>
    <edge id="-24311489#4"/>
    <edge id="-111400195#2"/>
    <edge id="15555547"/>
    <edge id="-533135675#1"/>
    <edge id="-15529791#3"/>
    <edge id="-320600632#3"/>
    <edge id="15555550"/>
    <edge id="390506335#0"/>
    <edge id="-387485067#2"/>
    <edge id="4310956"/>
    <edge id="-15529792#1"/>
    <edge id="390506336"/>
    <edge id="-150103348"/>
    <edge id="-320600632#4"/>
    <edge id="256228522#0"/>
    <edge id="8505014#1"/>
    <edge id="-387485071"/>
    <edge id="-15529801"/>
    <edge id="-150106464#0"/>
    <edge id="256228522#1"/>
    <edge id="-150892626"/>
    <edge id="-150106464#1"/>
    <edge id="145160443"/>
    <edge id="-150892629#0"/>
    <edge id="256228522#2"/>
    <edge id="-15546521#0"/>
    <edge id="-387485079#1"/>
    <edge id="23820519"/>
    <edge id="-150106464#2"/>
    <edge id="256228526"/>
    <edge id="-150106467"/>
    <edge id="-15546521#1"/>
    <edge id="-147425112#1"/>
    <edge id="390506339#0"/>
    <edge id="-150892633"/>
    <edge id="-150106469#0"/>
    <edge id="-473986009#1"/>
    <edge id="-15546523#0"/>
    <edge id="-387485087"/>
    <edge id="-150892637"/>
    <edge id="8818232#0"/>
    <edge id="-150106469#1"/>
    <edge id="133733293"/>
    <edge id="-15546523#7"/>
    <edge id="-387485089#0"/>
    <edge id="26767068"/>
    <edge id="8818232#2"/>
    <edge id="150949741#0"/>
    <edge id="23403144#0"/>
    <edge id="-150892639"/>
    <edge id="390506343"/>
    <edge id="15563240#0"/>
    <edge id="-32060931#0"/>
    <edge id="-15546525#1"/>
    <edge id="-387485147#3"/>
    <edge id="-8159727"/>
    <edge id="85241134#0"/>
    <edge id="-150892640#2"/>
    <edge id="358684908"/>
    <edge id="-gneE103"/>
    <edge id="-15546530#0"/>
    <edge id="-87674001#1"/>
    <edge id="23403304#0"/>
    <edge id="-150892641#0"/>
    <edge id="85241134#1"/>
    <edge id="-15546530#1"/>
    <edge id="-533508826#0"/>
    <edge id="23403353"/>
    <edge id="-150892641#1"/>
    <edge id="390506348#1"/>
    <edge id="-gneE114"/>
    <edge id="-112619417"/>
    <edge id="85241172#0"/>
    <edge id="-15546541#0"/>
    <edge id="159815266#1"/>
    <edge id="390506350#0"/>
    <edge id="-8505014#2"/>
    <edge id="85278315#0"/>
    <edge id="-150892641#2"/>
    <edge id="-gneE125"/>
    <edge id="-32061587#0"/>
    <edge id="159815266#2"/>
    <edge id="-150892641#3"/>
    <edge id="-15546541#5"/>
    <edge id="85278315#1"/>
    <edge id="-58903537#0"/>
    <edge id="89153840"/>
    <edge id="-29151987#2"/>
    <edge id="-58903537#1"/>
    <edge id="23281162#1"/>
    <edge id="-58903539"/>
    <edge id="23281162#2"/>
    <edge id="-100009568"/>
    <edge id="23281162#3"/>
    <edge id="8424934#0"/>
    <edge id="-331055774#0"/>
    <edge id="23281286"/>
    <edge id="23281315#0"/>
    <edge id="35009245#0"/>
    <edge id="-35210379"/>
    <edge id="35003227#0"/>
    <edge id="23281378"/>
    <edge id="117928729#0"/>
    <edge id="35009248#2"/>
    <edge id="-35210380"/>
    <edge id="35003227#1"/>
    <edge id="23281416#0"/>
    <edge id="548713209"/>
    <edge id="23281462"/>
    <edge id="-35210381"/>
    <edge id="35009249#1"/>
    <edge id="-18957682#3"/>
    <edge id="4322570"/>
    <edge id="-35210384"/>
    <edge id="-6187618#2"/>
    <edge id="-27153769#1"/>
    <edge id="-35213708"/>
    <edge id="-8048461"/>
    <edge id="8424948"/>
    <edge id="-23043297#1"/>
    <edge id="-590585295#0"/>
    <edge id="-25275121#1"/>
    <edge id="-590585295#2"/>
    <edge id="-23043299#2"/>
    <edge id="-23043300#8"/>
    <edge id="-422783059"/>
    <edge id="-23047914"/>
    <edge id="27921407#0"/>
    <edge id="5944530#2"/>
    <edge id="27921407#1"/>
    <edge id="-18959212#3"/>
    <edge id="-36972665#1"/>
    <edge id="-29265641"/>
    <edge id="27921407#2"/>
    <edge id="89309781#0"/>
    <edge id="264501810"/>
    <edge id="-36972665#2"/>
    <edge id="-18959434#0"/>
    <edge id="89309781#5"/>
    <edge id="14580663#2"/>
    <edge id="-22997696"/>
    <edge id="-24405848#1"/>
    <edge id="449919292"/>
    <edge id="631266301#0"/>
    <edge id="-479331237#1"/>
    <edge id="-23584378#18"/>
    <edge id="44346622"/>
    <edge id="38295418#0"/>
    <edge id="-16561045#1"/>
    <edge id="-24405852"/>
    <edge id="19784282#0"/>
    <edge id="631266302"/>
    <edge id="38295655"/>
    <edge id="-37289192#7"/>
    <edge id="-117928729#2"/>
    <edge id="-23584378#22"/>
    <edge id="-33650057#1"/>
    <edge id="-24405873"/>
    <edge id="-126975661#0"/>
    <edge id="14580663#3"/>
    <edge id="-16561047#2"/>
    <edge id="-23584378#5"/>
    <edge id="23385760#0"/>
    <edge id="-37316078#1"/>
    <edge id="19784282#1"/>
    <edge id="14580664#0"/>
    <edge id="-126975661#1"/>
    <edge id="-136554409#1"/>
    <edge id="-16561048#0"/>
    <edge id="-23584379#2"/>
    <edge id="14580667#0"/>
    <edge id="-33650057#2"/>
    <edge id="-4339124#0"/>
    <edge id="-37316078#2"/>
    <edge id="14580667#1"/>
    <edge id="671915478"/>
    <edge id="-127060255#0"/>
    <edge id="-24406570"/>
    <edge id="-16561050#0"/>
    <edge id="-23584380#1"/>
    <edge id="-27848568#0"/>
    <edge id="366115827#1"/>
    <edge id="-37316078#4"/>
    <edge id="-496421861"/>
    <edge id="221028921#5"/>
    <edge id="671915479"/>
    <edge id="-479613469"/>
    <edge id="-27937926#0"/>
    <edge id="-27848568#1"/>
    <edge id="14580667#2"/>
    <edge id="-24406584#0"/>
    <edge id="-16561050#1"/>
    <edge id="-23584381#10"/>
    <edge id="-120143808#0"/>
    <edge id="-17253915#0"/>
    <edge id="-496421863#1"/>
    <edge id="221028921#7"/>
    <edge id="14580667#3"/>
    <edge id="-4339134#0"/>
    <edge id="25274360#0"/>
    <edge id="-211334435#2"/>
    <edge id="-16561050#3"/>
    <edge id="-496421864"/>
    <edge id="-127076762#1"/>
    <edge id="-24406584#1"/>
    <edge id="-23584383#7"/>
    <edge id="14580668#0"/>
    <edge id="36734832#2"/>
    <edge id="32539923"/>
    <edge id="-211334438"/>
    <edge id="-17253915#1"/>
    <edge id="-27937928"/>
    <edge id="-127259241"/>
    <edge id="-24406584#2"/>
    <edge id="36734853#0"/>
    <edge id="-44380655#1"/>
    <edge id="-23584390#0"/>
    <edge id="19784416"/>
    <edge id="30166623"/>
    <edge id="-496421866"/>
    <edge id="535023252#2"/>
    <edge id="36734875#0"/>
    <edge id="221379625"/>
    <edge id="-22997737"/>
    <edge id="23386117#0"/>
    <edge id="29092495#0"/>
    <edge id="-23584480#2"/>
    <edge id="-496421868"/>
    <edge id="23386118#0"/>
    <edge id="535023252#3"/>
    <edge id="-43286933"/>
    <edge id="30166638#0"/>
    <edge id="-27937929#3"/>
    <edge id="29092509#0"/>
    <edge id="-16561075#0"/>
    <edge id="535023252#7"/>
    <edge id="19784430"/>
    <edge id="221488329"/>
    <edge id="535023291#0"/>
    <edge id="29092509#2"/>
    <edge id="30166706"/>
    <edge id="32595419"/>
    <edge id="-480933600"/>
    <edge id="-22998351#1"/>
    <edge id="38418860#3"/>
    <edge id="-433201007"/>
    <edge id="-44381102"/>
    <edge id="-16561075#1"/>
    <edge id="19784436#0"/>
    <edge id="29092513#0"/>
    <edge id="297216268#0"/>
    <edge id="30166736"/>
    <edge id="-27848596"/>
    <edge id="36734963#2"/>
    <edge id="-8588388#3"/>
    <edge id="-37415557#3"/>
    <edge id="297216268#1"/>
    <edge id="29092513#1"/>
    <edge id="-27848598"/>
    <edge id="-16561075#6"/>
    <edge id="-8588389"/>
    <edge id="36735409"/>
    <edge id="29092613#0"/>
    <edge id="450490490"/>
    <edge id="-24407250#1"/>
    <edge id="-16561075#8"/>
    <edge id="19784553#1"/>
    <edge id="-24407250#2"/>
    <edge id="-16561075#9"/>
    <edge id="-355725017"/>
    <edge id="-398389178#1"/>
    <edge id="-420107074#1"/>
    <edge id="-340740551"/>
    <edge id="340800514#1"/>
    <edge id="-488741039"/>
    <edge id="380386882#0"/>
    <edge id="-340740552"/>
    <edge id="410516251#1"/>
    <edge id="340800515"/>
    <edge id="-488741042"/>
    <edge id="-340740554#0"/>
    <edge id="41053938"/>
    <edge id="474005500#0"/>
    <edge id="38050037"/>
    <edge id="-340740554#1"/>
    <edge id="23222690#0"/>
    <edge id="-26084147#3"/>
    <edge id="-23404869#0"/>
    <edge id="-340740556"/>
    <edge id="474005500#1"/>
    <edge id="150951055#0"/>
    <edge id="150951055#1"/>
    <edge id="-23404869#1"/>
    <edge id="-217649838#1"/>
    <edge id="23301876#0"/>
    <edge id="-340740557#4"/>
    <edge id="150951055#2"/>
    <edge id="474005500#5"/>
    <edge id="22935728#0"/>
    <edge id="-340740557#5"/>
    <edge id="-671065273#1"/>
    <edge id="22935742"/>
    <edge id="270562457"/>
    <edge id="-24523430"/>
    <edge id="-340740558#0"/>
    <edge id="-27603133#1"/>
    <edge id="474005533#0"/>
    <edge id="564030684"/>
    <edge id="-24523805"/>
    <edge id="413363663"/>
    <edge id="474005534#0"/>
    <edge id="-24523845#2"/>
    <edge id="413363687"/>
    <edge id="274203036"/>
    <edge id="-24523845#3"/>
    <edge id="-26084818#1"/>
    <edge id="-24523845#4"/>
    <edge id="23681941"/>
    <edge id="-24523846#1"/>
    <edge id="274203037"/>
    <edge id="-340800509#1"/>
    <edge id="23681942#0"/>
    <edge id="-340800509#3"/>
    <edge id="23681942#1"/>
    <edge id="274203039"/>
    <edge id="551475363#0"/>
    <edge id="23681944#0"/>
    <edge id="551475363#3"/>
    <edge id="23681944#1"/>
    <edge id="23229699"/>
    <edge id="4323065"/>
    <edge id="421004485"/>
    <edge id="274203040#0"/>
    <edge id="551475363#4"/>
    <edge id="8672367#1"/>
    <edge id="100009799#0"/>
    <edge id="-24907456#1"/>
    <edge id="100009799#1"/>
    <edge id="-42728225"/>
    <edge id="127563865"/>
    <edge id="-24907472#1"/>
    <edge id="256413809"/>
    <edge id="-22935535#0"/>
    <edge id="-424419297#0"/>
    <edge id="-25305980#0"/>
    <edge id="23362310"/>
    <edge id="-22935535#1"/>
    <edge id="100009800"/>
    <edge id="-548713209"/>
    <edge id="-24907473"/>
    <edge id="256413810"/>
    <edge id="23362313"/>
    <edge id="-424419297#2"/>
    <edge id="474050883"/>
    <edge id="256413811#1"/>
    <edge id="23362332"/>
    <edge id="-23406939"/>
    <edge id="73859249"/>
    <edge id="-24907483"/>
    <edge id="-7241806#1"/>
    <edge id="23362375#0"/>
    <edge id="25069541"/>
    <edge id="384437636"/>
    <edge id="584462886#0"/>
    <edge id="100010188"/>
    <edge id="4405937#0"/>
    <edge id="86904604"/>
    <edge id="474050884#0"/>
    <edge id="584462886#1"/>
    <edge id="32989945"/>
    <edge id="32990016#0"/>
    <edge id="474050884#2"/>
    <edge id="23372317#0"/>
    <edge id="474050884#6"/>
    <edge id="23372317#4"/>
    <edge id="-419830727"/>
    <edge id="23372334"/>
    <edge id="18957682#1"/>
    <edge id="32990136#0"/>
    <edge id="474050885"/>
    <edge id="51569699"/>
    <edge id="-420089347#0"/>
    <edge id="23463886#0"/>
    <edge id="23372372#0"/>
    <edge id="18958923"/>
    <edge id="-282129702"/>
    <edge id="32990142#1"/>
    <edge id="-15065468#1"/>
    <edge id="51569700#0"/>
    <edge id="23372398"/>
    <edge id="-15065497"/>
    <edge id="23463886#2"/>
    <edge id="32990240"/>
    <edge id="-282129703#2"/>
    <edge id="474050886"/>
    <edge id="-420089348"/>
    <edge id="43485340#0"/>
    <edge id="23463887#2"/>
    <edge id="423426616"/>
    <edge id="43485340#1"/>
    <edge id="423426619"/>
    <edge id="-420107066"/>
    <edge id="585924786"/>
    <edge id="43486914"/>
    <edge id="474050887"/>
    <edge id="423426620"/>
    <edge id="-22935843#1"/>
    <edge id="-420107069"/>
    <edge id="-22935843#2"/>
    <edge id="423426621"/>
    <edge id="288096648"/>
    <edge id="23584376#8"/>
    <edge id="5082963"/>
    <edge id="89309781#7"/>
    <edge id="331055765#2"/>
    <edge id="-25306936"/>
    <edge id="23584378#0"/>
    <edge id="89309789#0"/>
    <edge id="89321855"/>
    <edge id="-96613312"/>
    <edge id="gneE61"/>
    <edge id="238322299#1"/>
    <edge id="280856403"/>
    <edge id="23584378#12"/>
    <edge id="58903539"/>
    <edge id="262527181"/>
    <edge id="58903537#1"/>
    <edge id="331055765#3"/>
    <edge id="-96613319#1"/>
    <edge id="23584378#19"/>
    <edge id="89417158#0"/>
    <edge id="23584378#3"/>
    <edge id="331055766#0"/>
    <edge id="-19784307#0"/>
    <edge id="-628523265#1"/>
    <edge id="89417212"/>
    <edge id="23584378#6"/>
    <edge id="58903989#0"/>
    <edge id="331055766#1"/>
    <edge id="58903989#2"/>
    <edge id="-23584021#2"/>
    <edge id="23584379#0"/>
    <edge id="gneE72"/>
    <edge id="-29387492#2"/>
    <edge id="469989266"/>
    <edge id="23584380#0"/>
    <edge id="gneE75"/>
    <edge id="42870902#0"/>
    <edge id="-23584023"/>
    <edge id="-29387548#1"/>
    <edge id="270769601#1"/>
    <edge id="23584381#0"/>
    <edge id="42870902#4"/>
    <edge id="gneE76"/>
    <edge id="23584382#0"/>
    <edge id="-413363663"/>
    <edge id="42871780"/>
    <edge id="23584383#0"/>
    <edge id="420753450#0"/>
    <edge id="gneE86"/>
    <edge id="276723353"/>
    <edge id="-23584055"/>
    <edge id="8434335#0"/>
    <edge id="-73859238#0"/>
    <edge id="420753450#2"/>
    <edge id="-73859238#1"/>
    <edge id="-344368422#2"/>
    <edge id="-23584063"/>
    <edge id="-23172737"/>
    <edge id="-19798139#2"/>
    <edge id="-344368422#4"/>
    <edge id="-23584140#1"/>
    <edge id="614357023#2"/>
    <edge id="480933600"/>
    <edge id="270769601#2"/>
    <edge id="276723356"/>
    <edge id="-628844679"/>
    <edge id="-402712215#0"/>
    <edge id="-25274360#1"/>
    <edge id="270769601#3"/>
    <edge id="270769601#4"/>
    <edge id="19798139#0"/>
    <edge id="-73859249"/>
    <edge id="-631266297#1"/>
    <edge id="150800244"/>
    <edge id="270769608"/>
    <edge id="131470457"/>
    <edge id="-23584378#1"/>
    <edge id="-631266298#1"/>
    <edge id="-23172933#3"/>
    <edge id="-23584378#10"/>
    <edge id="469993338#0"/>
    <edge id="36972673#1"/>
    <edge id="5218133#1"/>
    <edge id="-471168782#2"/>
    <edge id="36972751"/>
    <edge id="23008386#1"/>
    <edge id="-420753450#1"/>
    <edge id="469993339#0"/>
    <edge id="-471168782#3"/>
    <edge id="391643210#1"/>
    <edge id="36972914#0"/>
    <edge id="228922982"/>
    <edge id="5218134#0"/>
    <edge id="30248089#0"/>
    <edge id="471168782#2"/>
    <edge id="-450490490"/>
    <edge id="8052435#1-AddedOnRampEdge"/>
    <edge id="5218139#0"/>
    <edge id="26084818#0"/>
    <edge id="269737876"/>
    <edge id="471168782#3"/>
    <edge id="391643211#0"/>
    <edge id="68111247#1"/>
    <edge id="-420759890"/>
    <edge id="41589439#1"/>
    <edge id="469993339#2"/>
    <edge id="-699837755"/>
    <edge id="68111247#2"/>
    <edge id="68111248"/>
    <edge id="61921439"/>
    <edge id="61921440"/>
    <edge id="-699840570"/>
    <edge id="-384527457"/>
    <edge id="-8434335#0"/>
    <edge id="-699840759#0"/>
    <edge id="-17424843#1"/>
    <edge id="-384527458"/>
    <edge id="23008484#0"/>
    <edge id="470726561#0"/>
    <edge id="-699840759#3"/>
    <edge id="470726561#1"/>
    <edge id="-17424843#2"/>
    <edge id="391643213"/>
    <edge id="-150057725#5"/>
    <edge id="143447374#2"/>
    <edge id="-699841019#0"/>
    <edge id="23172737"/>
    <edge id="23008534#0"/>
    <edge id="470726561#3"/>
    <edge id="-699841066#2"/>
    <edge id="-699841066#3"/>
    <edge id="146234851#0"/>
    <edge id="-17424896#2"/>
    <edge id="23172749#0"/>
    <edge id="-472033204"/>
    <edge id="470726562#0"/>
    <edge id="23010619#0"/>
    <edge id="-17424896#3"/>
    <edge id="41670696#0"/>
    <edge id="24907064"/>
    <edge id="4314525"/>
    <edge id="41670696#2"/>
    <edge id="61969042#1"/>
    <edge id="23172752"/>
    <edge id="470726562#1"/>
    <edge id="-23229699"/>
    <edge id="-106675399#3"/>
    <edge id="23172756"/>
    <edge id="23010640#0"/>
    <edge id="141003821"/>
    <edge id="470726563#0"/>
    <edge id="23172774"/>
    <edge id="50679887#0"/>
    <edge id="269587677"/>
    <edge id="17424843#0"/>
    <edge id="-106675399#4"/>
    <edge id="470726563#1"/>
    <edge id="23172775"/>
    <edge id="17424843#2"/>
    <edge id="23010673"/>
    <edge id="-178809279#1"/>
    <edge id="228296052#0"/>
    <edge id="-23230310#3"/>
    <edge id="269587682"/>
    <edge id="-35332031#2"/>
    <edge id="17424896#2"/>
    <edge id="228296052#1"/>
    <edge id="23010676#0"/>
    <edge id="8052441"/>
    <edge id="228296052#2"/>
    <edge id="17424896#3"/>
    <edge id="-30049880#3"/>
    <edge id="50231313#0"/>
    <edge id="41670743#6"/>
    <edge id="-670918401#1"/>
    <edge id="-13219704#1"/>
    <edge id="21564946#1"/>
    <edge id="-35381463#0"/>
    <edge id="23010676#2"/>
    <edge id="41670743#7"/>
    <edge id="50231313#1"/>
    <edge id="8501393#0"/>
    <edge id="-13219704#6"/>
    <edge id="41670743#8"/>
    <edge id="-35381463#1"/>
    <edge id="37107710#0"/>
    <edge id="29151952#1-AddedOnRampEdge"/>
    <edge id="141626075"/>
    <edge id="56079256"/>
    <edge id="141626076"/>
    <edge id="-23714635#0"/>
    <edge id="29151967#0"/>
    <edge id="-85241134#3"/>
    <edge id="-23714635#1"/>
    <edge id="272514872"/>
    <edge id="4850537#0"/>
    <edge id="29151987#1"/>
    <edge id="-23714635#2"/>
    <edge id="24407554#1"/>
    <edge id="-486796108"/>
    <edge id="4850537#1"/>
    <edge id="272514873"/>
    <edge id="-85278315#0"/>
    <edge id="390269423#1"/>
    <edge id="23590052"/>
    <edge id="-85278315#1"/>
    <edge id="-250853372#2"/>
    <edge id="-85278315#2"/>
    <edge id="44380655#0"/>
    <edge id="48525677"/>
    <edge id="272514874"/>
    <edge id="44380656#0"/>
    <edge id="217521239"/>
    <edge id="-250853373#1"/>
    <edge id="-85278316#1"/>
    <edge id="390506296"/>
    <edge id="-23729887#0"/>
    <edge id="-250853373#2"/>
    <edge id="272514875#0"/>
    <edge id="-85278317"/>
    <edge id="364991364#1"/>
    <edge id="26961773#0"/>
    <edge id="390506297"/>
    <edge id="56079500#1"/>
    <edge id="44381102"/>
    <edge id="23714635#0"/>
    <edge id="26961773#2"/>
    <edge id="56079500#2"/>
    <edge id="165410276"/>
    <edge id="272514876"/>
    <edge id="217543126"/>
    <edge id="390506298"/>
    <edge id="23714635#1"/>
    <edge id="601078983#0"/>
    <edge id="217543127"/>
    <edge id="23714635#2"/>
    <edge id="601078983#2"/>
    <edge id="-24907064"/>
    <edge id="390506300#0"/>
    <edge id="16553651#0"/>
    <edge id="-488073623"/>
    <edge id="-26767068"/>
    <edge id="601347287#0"/>
    <edge id="390506300#1"/>
    <edge id="72228604#1"/>
    <edge id="-27510949"/>
    <edge id="601347287#1"/>
    <edge id="72228604#2"/>
    <edge id="23289718"/>
    <edge id="-27510963"/>
    <edge id="72228604#3"/>
    <edge id="390506309"/>
    <edge id="-23755271#0"/>
    <edge id="72228992#0"/>
    <edge id="-8554087"/>
    <edge id="-27510982#1"/>
    <edge id="48525678"/>
    <edge id="23589913#4"/>
    <edge id="-26780395#2"/>
    <edge id="390506310"/>
    <edge id="-89309781#10"/>
    <edge id="51270736#1"/>
    <edge id="72231191"/>
    <edge id="-26780400#1"/>
    <edge id="4442835"/>
    <edge id="-89309781#3"/>
    <edge id="22997692#3"/>
    <edge id="-717077860#1"/>
    <edge id="27047431#1"/>
    <edge id="-89309781#5"/>
    <edge id="22997693#0"/>
    <edge id="112619417"/>
    <edge id="-23183919#2"/>
    <edge id="-89321855"/>
    <edge id="22997694#0"/>
    <edge id="-89309789#2"/>
    <edge id="488738675#0"/>
    <edge id="22997694#3"/>
    <edge id="-44346622"/>
    <edge id="28713450"/>
    <edge id="-23183943#4"/>
    <edge id="-23463886#0"/>
    <edge id="22997696"/>
    <edge id="-24276491#1"/>
    <edge id="-27038407#0"/>
    <edge id="-319046728"/>
    <edge id="7241753"/>
    <edge id="-23183951"/>
    <edge id="116116769"/>
    <edge id="-89417158#0"/>
    <edge id="-651534348#2"/>
    <edge id="22997733#0"/>
    <edge id="-23463886#2"/>
    <edge id="488741039"/>
    <edge id="12985643#0"/>
    <edge id="-27038407#1"/>
    <edge id="-514906445"/>
    <edge id="23584021#0"/>
    <edge id="-24276618"/>
    <edge id="43134031#2"/>
    <edge id="28713505#0"/>
    <edge id="-23463887#0"/>
    <edge id="-146616587"/>
    <edge id="267024771"/>
    <edge id="488741040"/>
    <edge id="28713505#1"/>
    <edge id="-23463887#2"/>
    <edge id="23584055"/>
    <edge id="492380225#0"/>
    <edge id="23584063"/>
    <edge id="-23615123#3"/>
    <edge id="28713505#2"/>
    <edge id="488741042"/>
    <edge id="12985647#0"/>
    <edge id="28713507"/>
    <edge id="23584064#0"/>
    <edge id="-146747753#2"/>
    <edge id="87674001#1"/>
    <edge id="23584064#1"/>
    <edge id="-149916771#0"/>
    <edge id="23584140#1"/>
    <edge id="-714993413"/>
    <edge id="-149916771#1"/>
    <edge id="130878972#0"/>
    <edge id="22998351#1"/>
    <edge id="31353523"/>
    <edge id="87674004#2"/>
    <edge id="23222637#1"/>
    <edge id="31353557"/>
    <edge id="23222640"/>
    <edge id="-65386967"/>
    <edge id="24047336"/>
    <edge id="31353575"/>
    <edge id="-192313421#3"/>
    <edge id="-28713450"/>
    <edge id="-65489024"/>
    <edge id="23222645#0"/>
    <edge id="7241806#0"/>
    <edge id="-717077858"/>
    <edge id="-20464508#6"/>
    <edge id="30049880#3"/>
    <edge id="-192313422"/>
    <edge id="344368422#0"/>
    <edge id="4326479"/>
    <edge id="-56672979#5"/>
    <edge id="-23128734"/>
    <edge id="-717077860#0"/>
    <edge id="-122190404#1"/>
    <edge id="321745248#0"/>
    <edge id="-192313423"/>
    <edge id="344368422#3"/>
    <edge id="321745248#1"/>
    <edge id="23739593#2"/>
    <edge id="-469979659"/>
    <edge id="15546541#1"/>
    <edge id="35020650"/>
    <edge id="19783952"/>
    <edge id="496421865#0"/>
    <edge id="-33887470#5"/>
    <edge id="15546542"/>
    <edge id="35020652"/>
    <edge id="496421867#0"/>
    <edge id="22938609#1"/>
    <edge id="15546545#0"/>
    <edge id="96613312"/>
    <edge id="23739627"/>
    <edge id="496421868"/>
    <edge id="104003590#0"/>
    <edge id="35381463#0"/>
    <edge id="15546546#0"/>
    <edge id="540476097#2"/>
    <edge id="96613329#0"/>
    <edge id="15546546#1"/>
    <edge id="104003590#1"/>
    <edge id="35381463#1"/>
    <edge id="-33909880#2"/>
    <edge id="-260347354"/>
    <edge id="15546546#2"/>
    <edge id="454936368#0"/>
    <edge id="23739653"/>
    <edge id="-449147919"/>
    <edge id="319327117"/>
    <edge id="25305980#0"/>
    <edge id="23739924"/>
    <edge id="15546546#3"/>
    <edge id="455247111#1"/>
    <edge id="23739912#2"/>
    <edge id="387485067#0"/>
    <edge id="-33909880#4"/>
    <edge id="319327118"/>
    <edge id="19783956#1"/>
    <edge id="15546546#7"/>
    <edge id="-35066681#0"/>
    <edge id="15546546#8"/>
    <edge id="-35066681#1"/>
    <edge id="19783956#2"/>
    <edge id="387485071"/>
    <edge id="-469985099"/>
    <edge id="-4314026"/>
    <edge id="-23361379#4"/>
    <edge id="15546548"/>
    <edge id="-35066684#0"/>
    <edge id="281397433#0"/>
    <edge id="387485075#0"/>
    <edge id="281397433#1"/>
    <edge id="-387123105"/>
    <edge id="15546551#2"/>
    <edge id="-23361402"/>
    <edge id="26084096"/>
    <edge id="-35066684#1"/>
    <edge id="32236254#0"/>
    <edge id="15546551#4"/>
    <edge id="-43332690"/>
    <edge id="15546552#0"/>
    <edge id="32236254#1"/>
    <edge id="147425112#1"/>
    <edge id="387485087"/>
    <edge id="19783966"/>
    <edge id="104151515#0"/>
    <edge id="-43332750"/>
    <edge id="15546552#1"/>
    <edge id="32236440#0"/>
    <edge id="387485089#0"/>
    <edge id="32236440#1"/>
    <edge id="15546553"/>
    <edge id="-23372317#2"/>
    <edge id="32236474#0"/>
    <edge id="26084147#3"/>
    <edge id="-183401910#1"/>
    <edge id="32236474#1"/>
    <edge id="26084147#4"/>
    <edge id="15546557#0"/>
    <edge id="-23372317#4"/>
    <edge id="387485095#0"/>
    <edge id="32236545"/>
    <edge id="25306156"/>
    <edge id="19784268"/>
    <edge id="-183402017"/>
    <edge id="-30646634"/>
    <edge id="-68111248"/>
    <edge id="32236571"/>
    <edge id="15546559"/>
    <edge id="-627423578"/>
    <edge id="-23372372#1"/>
    <edge id="32236663#0"/>
    <edge id="19784278"/>
    <edge id="-477741394#1"/>
    <edge id="-25770531"/>
    <edge id="387485103#0"/>
    <edge id="-23372398"/>
    <edge id="32236663#1"/>
    <edge id="15546561#0"/>
    <edge id="-477769982"/>
    <edge id="-23284399"/>
    <edge id="32236711#0"/>
    <edge id="15546564#0"/>
    <edge id="-477769992"/>
    <edge id="541328772#0"/>
    <edge id="19784280#0"/>
    <edge id="387485107"/>
    <edge id="-211145764#3"/>
    <edge id="147553476"/>
    <edge id="-104003590#0"/>
    <edge id="649292590"/>
    <edge id="-104003590#1"/>
    <edge id="231316708#0"/>
    <edge id="4311774"/>
    <edge id="-91389745"/>
    <edge id="-259870954"/>
    <edge id="-445090772"/>
    <edge id="649480479#1"/>
    <edge id="4521080#0"/>
    <edge id="-23824499"/>
    <edge id="649610294"/>
    <edge id="-23824510#0"/>
    <edge id="8568313#1"/>
    <edge id="421262353"/>
    <edge id="-23824510#1"/>
    <edge id="-23824510#2"/>
    <edge id="-50679887#1"/>
    <edge id="33555565#0"/>
    <edge id="-535023252#1"/>
    <edge id="23280920"/>
    <edge id="-535023252#2"/>
    <edge id="276919409"/>
    <edge id="33555725"/>
    <edge id="-23824510#3"/>
    <edge id="649652319#1"/>
    <edge id="27603906#1"/>
    <edge id="-23824528#0"/>
    <edge id="-535023252#6"/>
    <edge id="649652324"/>
    <edge id="33555768#0"/>
    <edge id="391643187"/>
    <edge id="147553494#0"/>
    <edge id="-23824528#1"/>
    <edge id="276919410"/>
    <edge id="-104151515#0"/>
    <edge id="649652328"/>
    <edge id="33555855#1"/>
    <edge id="-23824528#2"/>
    <edge id="649652330"/>
    <edge id="33556040#0"/>
    <edge id="391643188"/>
    <edge id="649652333"/>
    <edge id="270562464"/>
    <edge id="33556040#1"/>
    <edge id="-23824564#0"/>
    <edge id="276919411"/>
    <edge id="269737842"/>
    <edge id="-5944494#1"/>
    <edge id="649652336"/>
    <edge id="-23824564#1"/>
    <edge id="270562468"/>
    <edge id="33556073"/>
    <edge id="391643190"/>
    <edge id="-5944499"/>
    <edge id="649652339#0"/>
    <edge id="33556087"/>
    <edge id="-165410276"/>
    <edge id="-23824564#2"/>
    <edge id="276919412"/>
    <edge id="649652339#1"/>
    <edge id="33556122"/>
    <edge id="34930008#2"/>
    <edge id="391643191"/>
    <edge id="452470792#2"/>
    <edge id="649652341"/>
    <edge id="-23824565#0"/>
    <edge id="-24520688#1"/>
    <edge id="117440382#0"/>
    <edge id="161765439#4"/>
    <edge id="161765439#5"/>
    <edge id="-29074952#1"/>
    <edge id="180794610#0"/>
    <edge id="161765439#6"/>
    <edge id="180794610#1"/>
    <edge id="-38295655"/>
    <edge id="384520993#0"/>
    <edge id="161765439#7"/>
    <edge id="-96611992#0"/>
    <edge id="-426148405#1"/>
    <edge id="161765447#0"/>
    <edge id="-29087303#2"/>
    <edge id="-426148405#2"/>
    <edge id="161765441"/>
    <edge id="136554409#0"/>
    <edge id="-96611992#2"/>
    <edge id="-29088010"/>
    <edge id="727297733"/>
    <edge id="136554409#2"/>
    <edge id="422783039#0"/>
    <edge id="161765444"/>
    <edge id="-31660309"/>
    <edge id="384527450"/>
    <edge id="-29088606"/>
    <edge id="384527457"/>
    <edge id="422783040#0"/>
    <edge id="384527452"/>
    <edge id="-29088636"/>
    <edge id="384527453#1"/>
    <edge id="422783040#0-AddedOffRampEdge"/>
    <edge id="-42691257#2"/>
    <edge id="671065273#1"/>
    <edge id="384527455"/>
    <edge id="391643206"/>
    <edge id="238940478"/>
    <edge id="-27317212"/>
    <edge id="384527458"/>
    <edge id="23165868#1"/>
    <edge id="238940479#0"/>
    <edge id="-29089455#0"/>
    <edge id="-427049000"/>
    <edge id="671065273#2"/>
    <edge id="391643207"/>
    <edge id="422783040#1"/>
    <edge id="23431844"/>
    <edge id="23401400"/>